$DATA1 SOURCE='HSPICE' VERSION='F-2011.09-SP2 64-BIT'
.TITLE '**----------------------------------------------------------'
 tr               tf               tpdr             tpdf              
 temper           alter#            
  2.565e-09       -7.567e-09       -7.598e-09        7.602e-09        
   25.0000        1                 
