$DATA1 SOURCE='HSPICE' VERSION='F-2011.09-SP2 64-BIT'
.TITLE '**----------------------------------------------------------'
 tr               tf               tpdr             tpdf              
 temper           alter#            
  7.507e-11        6.480e-11       -1.010e-08        1.010e-08        
   25.0000        1                 
