$DATA1 SOURCE='HSPICE' VERSION='F-2011.09-SP2 64-BIT'
.TITLE '**----------------------------------------------------------'
 tr               tf               tpdr             tpdf              
 temper           alter#            
  3.366e-11        1.932e-10       -1.009e-08        1.011e-08        
   25.0000        1                 
