 ****** HSPICE -- F-2011.09-SP2 64-BIT (Feb 27 2012) linux ******               
  Copyright (C) 2011 Synopsys, Inc. All Rights Reserved.                        
  Unpublished-rights reserved under US copyright laws.
  This program is protected by law and is subject to the
  terms and conditions of the license agreement from Synopsys.
  Use of this program is your acceptance to be bound by the
  license agreement. HSPICE is the trademark of Synopsys, Inc.
  Input File: nand.sp                                                           
  Command line options: -i nand.sp -o nand.lis
 lic:  
 lic: FLEXlm: v10.8 
 lic: USER:   boyangwu             HOSTNAME: scln2.rc.usf.edu 
 lic: HOSTID:                      PID:      87079 
 lic: Using FLEXlm license file: 
 lic: 27000@license0.rc.usf.edu 
 lic: Checkout 1 hspice 
 lic: License/Maintenance for hspice will expire on 18-jul-2021/2019.06 
 lic: 1(in_use)/50(total) FLOATING license(s) on SERVER license0.rc.usf.edu 
 lic:   
 scientific notation:
 a=10**-18  f=10**-15  p=10**-12  n=10**-9  u=10**-6
 m=10**-3   k=10**3    x=10**6    g=10**9 


 circuit parameter definitions
  parameter          =  value 





 constants  - tnom         kt           vt           gapsi        ni
            298.15000    4.1163e-21    25.69184m     1.11562    1.2565e+16 
1****** HSPICE -- F-2011.09-SP2 64-BIT (Feb 27 2012) linux ******               
 ******  
 **----------------------------------------------------------

  ******  mos   model parameters tnom=  25.000 temp=  25.000 *****
 ***************************************************************************
 ***        model parameters  model name:   0:nmos     model type:nmos   ***
 ***************************************************************************

   *** general parameters ***
    deriv=   0.           

   ***  level 49  model parameters  ***

      hspver=    2006.03               level=         49         
     version=        3.1            paramchk=          0         
      apwarn=          1                lite=          0         
      vgslim=          0             binUnit=          1         
      capMod=          2               xpart=        0.5         
      mobMod=          1              nqsMod=          0         
      stiMod=          0                 elm=          5         
    sfvtflag=          0                 tox=    4.1e-09 meter   
          xj=      1e-07 meter       binflag=          0         
        lmin=          0 meter          lmax=          0 meter   
        wmin=          0 meter          wmax=          0 meter   
        lref=          0 meter          wref=          0 meter   
        lint=1.25702e-08 meter          wint=9.45863e-09 meter   
       lmult=          1               wmult=          1         
          ll=          0                 lln=          1         
          lw=          0                 lwn=          1         
         lwl=          0                  wl=          0         
         wln=          1                  ww=          0         
         wwn=          1                 wwl=          0         
         dwg=-1.20462e-09 m/V             dwb=9.66422e-09 m/V^1/2 
          xl=     -2e-08                  xw=     -1e-08         
          a0=     1.9002                 ags=   0.412538 V^-1    
          b0=-1.06835e-08 meter            b1=     -1e-07 meter   
        keta=0.000250589 V^-1           voff= -0.0946268 V       
       ngate=          0 cm^-3           vbx=          0 V       
         vbm=         -3 V                xt=   1.55e-07 meter   
        vth0=   0.383282 V               nch= 2.3549e+17 cm^-3   
        nsub=      6e+16 cm^-3           nlx=1.55647e-07 meter   
      gamma1=          0 V^-1/2       gamma2=          0 V^-1/2  
          k1=   0.591571 V^1/2            k2=  0.0024327         
          k3=      0.001                 k3b=    2.88171 V^-1    
          w0=      1e-07 meter          dvt0=    1.86718         
        dvt1=   0.507095                dvt2= -0.0135063 V^-1    
       dvt0w=          0 meter^-1      dvt1w=          0 meter^-1
       dvt2w=          0 V^-1           dsub= 0.00275603         
        eta0= 0.00137586                etab=0.000137659 V^-1    
          u0=    275.556 cm^2/V/sec         ua=-1.15024e-09 m/V     
          ub=2.01415e-18 (m/V)^2          uc=4.21711e-11 V^-1    
        vsat=     100226 m/sec            a1= 0.00043771 v^-1    
          a2=   0.958432               delta=       0.01 V       
        rdsw=        105 ohm-um         prwg=        0.5 V^-1    
        prwb=       -0.2 V^-1/2           wr=          1         
        pclm=    0.86502             pdiblc1=   0.238815         
     pdiblc2= 0.00395731             pdiblcb=       -0.1 V^-1    
      pscbe1=6.14039e+10 V/m          pscbe2=5.82299e-08 V/m     
       drout=   0.728508                pvag=   0.171092         
     nfactor=    2.37614                cdsc=    0.00024 f/m^2   
       cdscb=          0 f/V/m^2       cdscd=          0 f/V/m^2 
         cit=          0 f/m^2        alpha0=          0 m/V     
       beta0=         30 V               dlc=1.25702e-08 meter   
         dwc=9.45863e-09 meter           clc=      1e-07 meter   
         cle=        0.6                cgso=   7.32e-10 f/m     
        cgdo=   7.32e-10 f/m            cgbo=      1e-12 f/m     
        cgsl=          0 f/m            cgdl=          0 f/m     
      ckappa=        0.6                  cf=          0 f/m     
        tnom=     300.15 K               kt1=      -0.11 V       
        kt1l=          0                 kt2=      0.022         
         ute=       -1.5                 ua1=   4.31e-09 m/V     
         ub1=  -7.61e-18 (m/V)^2         uc1=   -5.6e-11 m/V^2   
          at=      33000 m/s             prt=          0         
         using Berkeley noise model       noiMod=          1         
        noia=      1e+20                noib=      50000         
        noic=   -1.4e-12                  em=    4.1e+07         
          ef=          1                  af=          1         
          kf=          0              gdsnoi=-1.23457e-29         
         using Hspice diodes            using ACM 
         acm=         0                 hdif=         0 meter    
        ldif=         0 meter             js=         0 amp/m^2  
         jsw=         0 amp/m            xti=         0          
           n=         1                   cj=0.000977546 f/m^2    
          mj=  0.361111                   pb=  0.722413 V        
        cjsw=2.24481e-10 f/m             mjsw=       0.1          
         php=  0.722413 V               pbsw (not used)           
      cjgate=2.24481e-10 f/m            cjswg (not used)           
       mjswg (not used)                 pbswg (not used)           
       lketa=-0.00947318               wketa= 0.00102998         
       pketa= 0.00132978               pvth0= -0.0014684         
         pk2= 0.00085306               peta0=     0.0001         
         pu0=  -0.203478                 pua=-2.37215e-11         
         pub=4.74506e-25               pvsat=    901.673         
       prdsw=  -0.688879         
 ***************************************************************************
 ***        model parameters  model name:   0:pmos     model type:pmos   ***
 ***************************************************************************

   *** general parameters ***
    deriv=   0.           

   ***  level 49  model parameters  ***

      hspver=    2006.03               level=         49         
     version=        3.1            paramchk=          0         
      apwarn=          1                lite=          0         
      vgslim=          0             binUnit=          1         
      capMod=          2               xpart=        0.5         
      mobMod=          1              nqsMod=          0         
      stiMod=          0                 elm=          5         
    sfvtflag=          0                 tox=    4.1e-09 meter   
          xj=      1e-07 meter       binflag=          0         
        lmin=          0 meter          lmax=          0 meter   
        wmin=          0 meter          wmax=          0 meter   
        lref=          0 meter          wref=          0 meter   
        lint=2.55821e-08 meter          wint=          0 meter   
       lmult=          1               wmult=          1         
          ll=          0                 lln=          1         
          lw=          0                 lwn=          1         
         lwl=          0                  wl=          0         
         wln=          1                  ww=          0         
         wwn=          1                 wwl=          0         
         dwg=-2.00413e-08 m/V             dwb=1.03981e-08 m/V^1/2 
          xl=     -2e-08                  xw=     -1e-08         
          a0=    1.64232                 ags=   0.393488 V^-1    
          b0=1.14955e-06 meter            b1=3.50869e-06 meter   
        keta=  0.0146913 V^-1           voff=  -0.102544 V       
       ngate=          0 cm^-3           vbx=          0 V       
         vbm=         -3 V                xt=   1.55e-07 meter   
        vth0=  -0.407799 V               nch= 4.1589e+17 cm^-3   
        nsub=      6e+16 cm^-3           nlx=7.08582e-08 meter   
      gamma1=          0 V^-1/2       gamma2=          0 V^-1/2  
          k1=   0.581505 V^1/2            k2=  0.0273445         
          k3=          0                 k3b=    10.7067 V^-1    
          w0=      1e-06 meter          dvt0=   0.542739         
        dvt1=   0.349376                dvt2=    0.08174 V^-1    
       dvt0w=          0 meter^-1      dvt1w=          0 meter^-1
       dvt2w=          0 V^-1           dsub=    0.63027         
        eta0=  0.0276906                etab= -0.0693376 V^-1    
          u0=    116.609 cm^2/V/sec         ua= 1.5639e-09 m/V     
          ub=      1e-21 (m/V)^2          uc=     -1e-10 V^-1    
        vsat=     182617 m/sec            a1=   0.474966 v^-1    
          a2=    0.31182               delta=       0.01 V       
        rdsw=    309.922 ohm-um         prwg=        0.5 V^-1    
        prwb=       -0.5 V^-1/2           wr=          1         
        pclm=    1.32459             pdiblc1=          0         
     pdiblc2=  0.0136588             pdiblcb=     -0.001 V^-1    
      pscbe1=1.00528e+10 V/m          pscbe2=2.90349e-09 V/m     
       drout=0.000778026                pvag=    3.20271         
     nfactor=    1.92388                cdsc=    0.00024 f/m^2   
       cdscb=          0 f/V/m^2       cdscd=          0 f/V/m^2 
         cit=          0 f/m^2        alpha0=          0 m/V     
       beta0=         30 V               dlc=2.55821e-08 meter   
         dwc=          0 meter           clc=      1e-07 meter   
         cle=        0.6                cgso=   6.57e-10 f/m     
        cgdo=   6.57e-10 f/m            cgbo=      1e-12 f/m     
        cgsl=          0 f/m            cgdl=          0 f/m     
      ckappa=        0.6                  cf=          0 f/m     
        tnom=     300.15 K               kt1=      -0.11 V       
        kt1l=          0                 kt2=      0.022         
         ute=       -1.5                 ua1=   4.31e-09 m/V     
         ub1=  -7.61e-18 (m/V)^2         uc1=   -5.6e-11 m/V^2   
          at=      33000 m/s             prt=          0         
         using Berkeley noise model       noiMod=          1         
        noia=    9.9e+18                noib=       2400         
        noic=    1.4e-12                  em=    4.1e+07         
          ef=          1                  af=          1         
          kf=          0              gdsnoi=-1.23457e-29         
         using Hspice diodes            using ACM 
         acm=         0                 hdif=         0 meter    
        ldif=         0 meter             js=         0 amp/m^2  
         jsw=         0 amp/m            xti=         0          
           n=         1                   cj=0.00118422 f/m^2    
          mj=  0.413121                   pb=  0.855252 V        
        cjsw=1.69663e-10 f/m             mjsw=  0.242466          
         php=  0.855252 V               pbsw (not used)           
      cjgate=1.69663e-10 f/m            cjswg (not used)           
       mjswg (not used)                 pbswg (not used)           
       lketa= 0.00587759               wketa= 0.00249485         
       pketa=  0.0022305               pvth0=0.000841403         
         pk2= 0.00147551               peta0=     0.0001         
         pu0=   -1.84325                 pua=-6.92569e-11         
         pub=      1e-21               pvsat=         50         
       prdsw=    9.92224         
  **info** (nand.sp:13) DC voltage reset to initial transient source value              in source        0:vin1                new dc=  0.0000D+00
 **warning** has  discontinuity at the junction of repeated pwl source . A rise/fall time of 1e-15 second is added
 

 Warning: Pd = 0 is less than W.
 Model:    0:nmos
 W = 1.7e-07, L = 1.6e-07

1****** HSPICE -- F-2011.09-SP2 64-BIT (Feb 27 2012) linux ******               
 ******  
 **----------------------------------------------------------

  ******  circuit element summary tnom=  25.000 temp=  25.000 *****


 **** capacitors
  
  
                             
 element name        0:cload 
 node1               0:out   
 node2               0:0     
 model                       
 cap eff            10.0000f 
 tc1                 0.      
 tc2                 0.      
 scale               1.0000  
 ic                  0.      
 m                   1.0000  
 w                   0.      
 l                   0.      
 temp               25.0000  


 **** independent sources

     name         node1        node2      dc volt    ac mag    ac phase    type
  vdd  vdd               0                    1.8000     0.         0.      dc   
  vin1  in1               0                    0.         0.         0.      pwl  
             repeat delay.     0.     
                time        value

                   0.           0.     
                   4.9000n      0.     
                   5.0000n      2.0000 
                   9.9000n      2.0000 
                  10.0000n      0.     
                  14.9000n      0.     
                  15.0000n      2.0000 
                  19.9000n      2.0000 
                  20.0000n      2.0000 


  vin2  in2               0                    0.         0.         0.      pwl  
             repeat delay.     0.     
                time        value

                   0.           0.     
                   4.9000n      0.     
                   5.0000n      2.0000 
                   9.9000n      2.0000 
                  10.0000n      2.0000 
                  14.9000n      2.0000 
                  15.0000n      0.     
                  19.9000n      0.     
                  20.0000n      0.     




 **** mosfets


 **** BSIM3v3 Model (Level49 or Level53)
  
  
                                                              
 element name        0:m1       0:m2       0:m3       0:m4    
 drain               0:out      0:out      0:out      0:x     
 gate                0:in1      0:in2      0:in1      0:in2   
 source              0:vdd      0:vdd      0:x        0:0     
 bulk                0:vdd      0:vdd      0:0        0:0     
 model               0:pmos     0:pmos     0:nmos     0:nmos  
 w eff             170.0000n  170.0000n  151.0827n  151.0827n 
 l eff             108.8357n  108.8357n  134.8597n  134.8597n 
 rd eff              0.         0.         0.         0.      
 rs eff              0.         0.         0.         0.      
 cdsat               0.         0.         0.         0.      
 cssat               0.         0.         0.         0.      
 capbd               0.         0.         0.         0.      
 capbs               0.         0.         0.         0.      
 temp               25.0000    25.0000    25.0000    25.0000  
 aic                                                          
 nf                  1.0000     1.0000     1.0000     1.0000  
 sa                  0.         0.         0.         0.      
 sb                  0.         0.         0.         0.      
 sd                  0.         0.         0.         0.      
 saeff               0.         0.         0.         0.      
 sbeff               0.         0.         0.         0.      
 mulu0               1.0000     1.0000     1.0000     1.0000  
 mulua               1.0000     1.0000     1.0000     1.0000  
 mulub               1.0000     1.0000     1.0000     1.0000  
  
  
      
 **warning** has  discontinuity at the junction of repeated pwl source . A rise/fall time of 1e-15 second is added
 **info** set option symb=1 internally to help for convergence.
 *****************************************************************
 ******  option summary
 ******
 runlvl  = 3         bypass  = 2         
1****** HSPICE -- F-2011.09-SP2 64-BIT (Feb 27 2012) linux ******               
 ******  
 **----------------------------------------------------------

  ******  temperature-adjusted values tnom=  25.000 temp=  25.000 *****

 constants  - temp             kt               vt               gapsi            ni
            298.1500         4.116e-21         25.6918m          1.1156         1.256e+16      

 *** capacitors
    name        eff val



 *** mosfet element parameters
 name             rd eff           rs eff           cdsat            cssat              vto                beta


        0:m1                  0.               0.               0.               0.            -362.3225m        332.2030u      
        0:m2                  0.               0.               0.               0.            -362.3225m        332.2030u      
        0:m3                  0.               0.               0.               0.             311.2135m        571.8340u      
        0:m4                  0.               0.               0.               0.             311.2135m        571.8340u      
1****** HSPICE -- F-2011.09-SP2 64-BIT (Feb 27 2012) linux ******               
 ******  
 **----------------------------------------------------------

  ******  operating point information tnom=  25.000 temp=  25.000 *****
 ***** operating point status is voltage   simulation time is     0.     
    node    =voltage      node    =voltage      node    =voltage

 +0:in1     =   0.      0:in2     =   0.      0:out     =   1.8000 
 +0:vdd     =   1.8000  0:x       =  59.6680m

 ******  
 **----------------------------------------------------------

  ******  transient analysis tnom=  25.000 temp=  25.000 *****

a


 legend:

  a: v(in1)
  b: v(in2)
  c: v(out)

      time       v(in1)
 (abc     )      -1.0000        0.            1.0000        2.0000       3.0000 
                      +             +             +             +             + 
    0.         0.    -+------+------2------+------+------+---c--+------+------+-
    1.0000n    0.     +      +      2      +      +      +   c  +      +      + 
    2.0000n    0.     +      +      2      +      +      +   c  +      +      + 
    3.0000n    0.     +      +      2      +      +      +   c  +      +      + 
    4.0000n    0.     +      +      2      +      +      +   c  +      +      + 
    5.0000n    2.000  +      +      +      +      +     c+      2      +      + 
    6.0000n    2.000  +      +      c      +      +      +      2      +      + 
    7.0000n    2.000  +      +      c      +      +      +      2      +      + 
    8.0000n    2.000  +      +      c      +      +      +      2      +      + 
    9.0000n    2.000  +      +      c      +      +      +      2      +      + 
   10.0000n    0.    -+------+------a-c----+------+------+------b------+------+-
   11.0000n    0.     +      +      a      +      +      +   c  b      +      + 
   12.0000n    0.     +      +      a      +      +      +   c  b      +      + 
   13.0000n    0.     +      +      a      +      +      +   c  b      +      + 
   14.0000n    0.     +      +      a      +      +      +   c  b      +      + 
   15.0000n    2.000  +      +      b      +      +      +  c   a      +      + 
   16.0000n    2.000  +      +      b      +      +      +   c  a      +      + 
   17.0000n    2.000  +      +      b      +      +      +   c  a      +      + 
   18.0000n    2.000  +      +      b      +      +      +   c  a      +      + 
   19.0000n    2.000  +      +      b      +      +      +   c  a      +      + 
   20.0000n    2.000 -+------+------b------+------+------+---c--a------+------+-
   21.0000n    0.     +      +      2      +      +      +   c  +      +      + 
   22.0000n    0.     +      +      2      +      +      +   c  +      +      + 
   23.0000n    0.     +      +      2      +      +      +   c  +      +      + 
   24.0000n    0.     +      +      2      +      +      +   c  +      +      + 
   25.0000n    2.000  +      +      +      +      +     c+      2      +      + 
   26.0000n    2.000  +      +      c      +      +      +      2      +      + 
   27.0000n    2.000  +      +      c      +      +      +      2      +      + 
   28.0000n    2.000  +      +      c      +      +      +      2      +      + 
   29.0000n    2.000  +      +      c      +      +      +      2      +      + 
   30.0000n   20.000u-+------+------a-c----+------+------+------b------+------+-
   31.0000n    0.     +      +      a      +      +      +   c  b      +      + 
   32.0000n    0.     +      +      a      +      +      +   c  b      +      + 
   33.0000n    0.     +      +      a      +      +      +   c  b      +      + 
   34.0000n    0.     +      +      a      +      +      +   c  b      +      + 
   35.0000n    2.000  +      +      b      +      +      +  c   a      +      + 
   36.0000n    2.000  +      +      b      +      +      +   c  a      +      + 
   37.0000n    2.000  +      +      b      +      +      +   c  a      +      + 
   38.0000n    2.000  +      +      b      +      +      +   c  a      +      + 
   39.0000n    2.000  +      +      b      +      +      +   c  a      +      + 
   40.0000n    2.000 -+------+------b------+------+------+---c--a------+------+-
                      +             +             +             +             + 

b


          ***** job concluded
1****** HSPICE -- F-2011.09-SP2 64-BIT (Feb 27 2012) linux ******               
 ******  
 **----------------------------------------------------------

  ******  job statistics summary tnom=  25.000 temp=  25.000 *****
  
  
 ******  Machine Information  ******
 CPU:
 model name	: Intel(R) Xeon(R) CPU E5-2650 v4 @ 2.20GHz
 cpu MHz	: 2197.576
  
 OS:
 Linux version 2.6.32-696.18.7.el6.x86_64 (mockbuild@x86-042.build.eng.bos.redha
 t.com) (gcc version 4.4.7 20120313 (Red Hat 4.4.7-18) (GCC) ) #1 SMP Thu Dec 28
  20:15:47 EST 2017


  ******  HSPICE Threads Information  ******

  Command Line Threads Count :     1
  Available CPU Count        :    24
  Actual Threads Count       :     1


  ******  Circuit Statistics  ******
  # nodes       =       6 # elements   =       8
  # resistors   =       0 # capacitors =       1 # inductors   =       0
  # mutual_inds =       0 # vccs       =       0 # vcvs        =       0
  # cccs        =       0 # ccvs       =       0 # volt_srcs   =       3
  # curr_srcs   =       0 # diodes     =       0 # bjts        =       0
  # jfets       =       0 # mosfets    =       4 # U elements  =       0
  # T elements  =       0 # W elements =       0 # B elements  =       0
  # S elements  =       0 # P elements =       0 # va device   =       0
  # vector_srcs =       0


  ******  Runtime Statistics (seconds)  ******

  analysis           time    # points   tot. iter  conv.iter
  op point           0.00           1           7
  transient          0.01          41         432         164 rev=        26
  readin             0.00
  errchk             0.00
  setup              0.00
  output             0.00


           peak memory used        125.48 megabytes
           total cpu time            0.01 seconds
           total elapsed time        0.28 seconds
           job started at     11:07:22 09/12/2019
           job ended   at     11:07:22 09/12/2019


 lic: Release hspice token(s) 
