$DATA1 SOURCE='HSPICE' VERSION='F-2011.09-SP2 64-BIT'
.TITLE '**----------------------------------------------------------'
 tr               tf               tpdr             tpdf              
 temper           alter#            
  1.077e-09        4.254e-10        7.815e-10        3.081e-10        
   25.0000        1                 
